<?xml version="1.0" encoding="UTF-8"?>

<!-- generated on 2024-09-13 10:00:11 by Eclipse SUMO netedit Version 1.16.0
-->

<routes xmlns:xsi="http://www.w3.org/2001/XMLSchema-instance" xsi:noNamespaceSchemaLocation="http://sumo.dlr.de/xsd/routes_file.xsd">
    <!-- VTypes -->
    <vType id="vtype0" length="4.50" minGap="2.50" maxSpeed="14.00" color="yellow" accel="2.6" decel="4.5" sigma="0.5"/>
    <!-- Routes -->
    <route id="r_0" edges="E35 E32 E48 E45 E60 E61 E62"/>
    <route id="r_1" edges="E63 E64 E65 E47 E49 E15 E21"/>
    <route id="r_2" edges="E52 E28 E43 E44 E93 E89 E95"/>
    <route id="r_3" edges="E52 E28 E43 E49 E15 E21"/>
    <route id="r_4" edges="E52 E28 E43 E44 E45 E60 E61 E62"/>
    <route id="r_5" edges="E94 E87 E92 E46 E42 E29 E51"/>
    <route id="r_6" edges="E94 E87 E92 E60 E61 E62"/>
    <route id="r_7" edges="E94 E87 E92 E46 E47 E49 E15 E21"/>
    <route id="r_8" edges="E35 E85 E73 E70 E90 E86 E98 E80 E81 E96 E62"/>
    <route id="r_9" edges="E63 E68 E54 E58 E57 E23 E31 E38 E39 E41 E21"/>
    <route id="ruta_nula-10" edges="E2"/>
    <route id="ruta_nula0-1" edges="E4"/>
    <route id="ruta_nula00" edges="E0"/>
    <route id="ruta_nula01" edges="E3"/>
    <route id="ruta_nula10" edges="E1"/>
    <!-- Vehicles, persons and containers (sorted by depart) -->
    <vehicle id="RSU00" type="vtype0" depart="0.00" color="black">
        <route edges="E0"/>
        <stop lane="E0_0" endPos="2.50" until="3600.00" friendlyPos="1"/>
    </vehicle>
    <vehicle id="RSU-10" type="vtype0" depart="0.01" color="black">
        <route edges="E2"/>
        <stop lane="E2_0" endPos="2.50" until="3600.00" friendlyPos="1"/>
    </vehicle>
    <vehicle id="RSU0-1" type="vtype0" depart="0.01" color="black">
        <route edges="E4"/>
        <stop lane="E4_0" endPos="2.50" until="3600.00" friendlyPos="1"/>
    </vehicle>
    <vehicle id="RSU01" type="vtype0" depart="0.01" color="black">
        <route edges="E3"/>
        <stop lane="E3_0" endPos="2.50" until="3600.00" friendlyPos="1"/>
    </vehicle>
    <vehicle id="RSU10" type="vtype0" depart="0.01" color="black">
        <route edges="E1"/>
        <stop lane="E1_0" endPos="2.50" until="3600.00" friendlyPos="1"/>
    </vehicle>
    <flow id="f_0" begin="0.05" color="yellow" route="r_0" end="3600.00" vehsPerHour="180.00"/>
    <flow id="f_1" begin="0.05" color="138,43,226" route="r_1" end="3600.00" vehsPerHour="180.00"/>
    <flow id="f_4" begin="10.00" color="red" route="r_4" end="3600.00" vehsPerHour="180.00"/>
    <flow id="f_7" begin="10.00" color="orange" route="r_7" end="3600.00" vehsPerHour="180.00"/>
    <flow id="f_8" begin="10.00" color="green" route="r_8" end="3600.00" vehsPerHour="180.00"/>
    <flow id="f_9" begin="10.00" color="238,223,204" route="r_9" end="3600.00" vehsPerHour="180.00"/>
    <flow id="f_3" begin="20.00" color="blue" route="r_3" end="3600.00" vehsPerHour="180.00"/>
    <flow id="f_6" begin="20.00" color="cyan" route="r_6" end="3600.00" vehsPerHour="180.00"/>
    <flow id="f_2" begin="30.00" color="magenta" route="r_2" end="3600.00" vehsPerHour="180.00"/>
    <flow id="f_5" begin="30.00" color="white" route="r_5" end="3600.00" vehsPerHour="180.00"/>
</routes>
