<?xml version="1.0" encoding="UTF-8"?>

<!-- generated on 2024-09-13 10:00:11 by Eclipse SUMO netedit Version 1.16.0
<configuration xmlns:xsi="http://www.w3.org/2001/XMLSchema-instance" xsi:noNamespaceSchemaLocation="http://sumo.dlr.de/xsd/netconvertConfiguration.xsd">

    <input>
        <sumocfg-file value="/home/bichipux/Escritorio/simulaciones/flooding06/simulations/veins_inet/square.sumocfg"/>
        <additional-files value="/home/bichipux/Escritorio/simulaciones/flooding06/simulations/veins_inet/square.poly.xml"/>
        <route-files value="/home/bichipux/Escritorio/simulaciones/flooding06/simulations/veins_inet/square.rou.xml"/>
        <sumo-net-file value="/home/bichipux/Escritorio/simulaciones/flooding06/simulations/veins_inet/square.net.xml"/>
    </input>

    <output>
        <output-file value="/home/bichipux/Escritorio/simulaciones/flooding06/simulations/veins_inet/square.net.xml"/>
    </output>

    <processing>
        <geometry.min-radius.fix.railways value="false"/>
        <geometry.max-grade.fix value="false"/>
        <offset.disable-normalization value="true"/>
        <lefthand value="0"/>
    </processing>

    <junctions>
        <no-turnarounds value="true"/>
        <junctions.corner-detail value="0"/>
        <junctions.limit-turn-speed value="-1.00"/>
        <rectangular-lane-cut value="0"/>
    </junctions>

    <pedestrian>
        <walkingareas value="0"/>
    </pedestrian>

</configuration>
-->

<net version="1.16" xmlns:xsi="http://www.w3.org/2001/XMLSchema-instance" xsi:noNamespaceSchemaLocation="http://sumo.dlr.de/xsd/net_file.xsd">

    <location netOffset="0.00,0.00" convBoundary="-195.00,-195.00,195.00,195.00" origBoundary="0.00,0.00,100.00,100.00" projParameter="!"/>

    <edge id=":-1-1_NE_0" function="internal">
        <lane id=":-1-1_NE_0_0" index="0" speed="11.11" length="9.03" shape="-84.60,-90.20 -87.05,-89.85 -88.80,-88.80 -89.85,-87.05 -90.20,-84.60"/>
    </edge>
    <edge id=":-1-1_NE_1" function="internal">
        <lane id=":-1-1_NE_1_0" index="0" speed="11.11" length="14.40" shape="-84.60,-90.20 -99.00,-90.20"/>
        <lane id=":-1-1_NE_1_1" index="1" speed="11.11" length="14.40" shape="-84.60,-93.40 -99.00,-93.40"/>
    </edge>
    <edge id=":-1-1_NE_3" function="internal">
        <lane id=":-1-1_NE_3_0" index="0" speed="11.11" length="14.40" shape="-90.20,-99.00 -90.20,-84.60"/>
        <lane id=":-1-1_NE_3_1" index="1" speed="11.11" length="14.40" shape="-93.40,-99.00 -93.40,-84.60"/>
    </edge>
    <edge id=":-1-1_NE_5" function="internal">
        <lane id=":-1-1_NE_5_0" index="0" speed="11.11" length="4.11" shape="-93.40,-99.00 -93.75,-96.55 -94.59,-95.15"/>
    </edge>
    <edge id=":-1-1_NE_6" function="internal">
        <lane id=":-1-1_NE_6_0" index="0" speed="11.11" length="4.93" shape="-94.59,-95.15 -94.80,-94.80 -96.55,-93.75 -99.00,-93.40"/>
    </edge>
    <edge id=":-1-1_NW_0" function="internal">
        <lane id=":-1-1_NW_0_0" index="0" speed="11.11" length="14.40" shape="-109.80,-84.60 -109.80,-99.00"/>
        <lane id=":-1-1_NW_0_1" index="1" speed="11.11" length="14.40" shape="-106.60,-84.60 -106.60,-99.00"/>
    </edge>
    <edge id=":-1-1_NW_2" function="internal">
        <lane id=":-1-1_NW_2_0" index="0" speed="11.11" length="3.89" shape="-101.00,-90.20 -104.85,-90.75"/>
        <lane id=":-1-1_NW_2_1" index="1" speed="11.11" length="4.11" shape="-101.00,-93.40 -103.45,-93.75 -104.85,-94.59"/>
    </edge>
    <edge id=":-1-1_NW_4" function="internal">
        <lane id=":-1-1_NW_4_0" index="0" speed="11.11" length="10.30" shape="-104.85,-90.75 -107.60,-92.40 -109.25,-95.15 -109.80,-99.00"/>
    </edge>
    <edge id=":-1-1_NW_5" function="internal">
        <lane id=":-1-1_NW_5_0" index="0" speed="11.11" length="4.93" shape="-104.85,-94.59 -105.20,-94.80 -106.25,-96.55 -106.60,-99.00"/>
    </edge>
    <edge id=":-1-1_SE_0" function="internal">
        <lane id=":-1-1_SE_0_0" index="0" speed="11.11" length="14.40" shape="-99.00,-109.80 -84.60,-109.80"/>
        <lane id=":-1-1_SE_0_1" index="1" speed="11.11" length="14.40" shape="-99.00,-106.60 -84.60,-106.60"/>
    </edge>
    <edge id=":-1-1_SE_2" function="internal">
        <lane id=":-1-1_SE_2_0" index="0" speed="11.11" length="11.73" shape="-99.00,-106.60 -95.15,-106.25 -92.40,-105.20 -90.75,-103.45 -90.20,-101.00"/>
        <lane id=":-1-1_SE_2_1" index="1" speed="11.11" length="9.03" shape="-99.00,-106.60 -96.55,-106.25 -94.80,-105.20 -93.75,-103.45 -93.40,-101.00"/>
    </edge>
    <edge id=":-1-1_SW_0" function="internal">
        <lane id=":-1-1_SW_0_0" index="0" speed="11.11" length="7.74" shape="-109.80,-105.00 -109.50,-107.10 -108.60,-108.60 -107.10,-109.50 -105.00,-109.80"/>
        <lane id=":-1-1_SW_0_1" index="1" speed="11.11" length="2.58" shape="-106.60,-105.00 -106.50,-105.70 -106.20,-106.20 -105.70,-106.50 -105.00,-106.60"/>
    </edge>
    <edge id=":-10_NE_0" function="internal">
        <lane id=":-10_NE_0_0" index="0" speed="11.11" length="9.03" shape="-84.60,9.80 -87.05,10.15 -88.80,11.20 -89.85,12.95 -90.20,15.40"/>
    </edge>
    <edge id=":-10_NE_1" function="internal">
        <lane id=":-10_NE_1_0" index="0" speed="11.11" length="14.40" shape="-84.60,9.80 -99.00,9.80"/>
        <lane id=":-10_NE_1_1" index="1" speed="11.11" length="14.40" shape="-84.60,6.60 -99.00,6.60"/>
    </edge>
    <edge id=":-10_NE_3" function="internal">
        <lane id=":-10_NE_3_0" index="0" speed="11.11" length="14.40" shape="-90.20,1.00 -90.20,15.40"/>
        <lane id=":-10_NE_3_1" index="1" speed="11.11" length="14.40" shape="-93.40,1.00 -93.40,15.40"/>
    </edge>
    <edge id=":-10_NE_5" function="internal">
        <lane id=":-10_NE_5_0" index="0" speed="11.11" length="4.11" shape="-93.40,1.00 -93.75,3.45 -94.59,4.85"/>
    </edge>
    <edge id=":-10_NE_6" function="internal">
        <lane id=":-10_NE_6_0" index="0" speed="11.11" length="4.93" shape="-94.59,4.85 -94.80,5.20 -96.55,6.25 -99.00,6.60"/>
    </edge>
    <edge id=":-10_NW_0" function="internal">
        <lane id=":-10_NW_0_0" index="0" speed="11.11" length="9.03" shape="-109.80,15.40 -110.15,12.95 -111.20,11.20 -112.95,10.15 -115.40,9.80"/>
    </edge>
    <edge id=":-10_NW_1" function="internal">
        <lane id=":-10_NW_1_0" index="0" speed="11.11" length="14.40" shape="-109.80,15.40 -109.80,1.00"/>
        <lane id=":-10_NW_1_1" index="1" speed="11.11" length="14.40" shape="-106.60,15.40 -106.60,1.00"/>
    </edge>
    <edge id=":-10_NW_3" function="internal">
        <lane id=":-10_NW_3_0" index="0" speed="11.11" length="14.40" shape="-101.00,9.80 -115.40,9.80"/>
        <lane id=":-10_NW_3_1" index="1" speed="11.11" length="14.40" shape="-101.00,6.60 -115.40,6.60"/>
    </edge>
    <edge id=":-10_NW_5" function="internal">
        <lane id=":-10_NW_5_0" index="0" speed="11.11" length="4.11" shape="-101.00,6.60 -103.45,6.25 -104.85,5.41"/>
    </edge>
    <edge id=":-10_NW_6" function="internal">
        <lane id=":-10_NW_6_0" index="0" speed="11.11" length="4.93" shape="-104.85,5.41 -105.20,5.20 -106.25,3.45 -106.60,1.00"/>
    </edge>
    <edge id=":-10_SE_0" function="internal">
        <lane id=":-10_SE_0_0" index="0" speed="11.11" length="9.03" shape="-90.20,-15.40 -89.85,-12.95 -88.80,-11.20 -87.05,-10.15 -84.60,-9.80"/>
    </edge>
    <edge id=":-10_SE_1" function="internal">
        <lane id=":-10_SE_1_0" index="0" speed="11.11" length="14.40" shape="-90.20,-15.40 -90.20,-1.00"/>
        <lane id=":-10_SE_1_1" index="1" speed="11.11" length="14.40" shape="-93.40,-15.40 -93.40,-1.00"/>
    </edge>
    <edge id=":-10_SE_3" function="internal">
        <lane id=":-10_SE_3_0" index="0" speed="11.11" length="14.40" shape="-99.00,-9.80 -84.60,-9.80"/>
        <lane id=":-10_SE_3_1" index="1" speed="11.11" length="14.40" shape="-99.00,-6.60 -84.60,-6.60"/>
    </edge>
    <edge id=":-10_SE_5" function="internal">
        <lane id=":-10_SE_5_0" index="0" speed="11.11" length="4.11" shape="-99.00,-6.60 -96.55,-6.25 -95.15,-5.41"/>
    </edge>
    <edge id=":-10_SE_6" function="internal">
        <lane id=":-10_SE_6_0" index="0" speed="11.11" length="4.93" shape="-95.15,-5.41 -94.80,-5.20 -93.75,-3.45 -93.40,-1.00"/>
    </edge>
    <edge id=":-10_SW_0" function="internal">
        <lane id=":-10_SW_0_0" index="0" speed="11.11" length="14.40" shape="-109.80,-1.00 -109.80,-15.40"/>
        <lane id=":-10_SW_0_1" index="1" speed="11.11" length="14.40" shape="-106.60,-1.00 -106.60,-15.40"/>
    </edge>
    <edge id=":-10_SW_2" function="internal">
        <lane id=":-10_SW_2_0" index="0" speed="11.11" length="4.11" shape="-106.60,-1.00 -106.25,-3.45 -105.41,-4.85"/>
    </edge>
    <edge id=":-10_SW_6" function="internal">
        <lane id=":-10_SW_6_0" index="0" speed="11.11" length="4.93" shape="-105.41,-4.85 -105.20,-5.20 -103.45,-6.25 -101.00,-6.60"/>
    </edge>
    <edge id=":-10_SW_3" function="internal">
        <lane id=":-10_SW_3_0" index="0" speed="11.11" length="9.03" shape="-115.40,-9.80 -112.95,-10.15 -111.20,-11.20 -110.15,-12.95 -109.80,-15.40"/>
    </edge>
    <edge id=":-10_SW_4" function="internal">
        <lane id=":-10_SW_4_0" index="0" speed="11.11" length="14.40" shape="-115.40,-9.80 -101.00,-9.80"/>
        <lane id=":-10_SW_4_1" index="1" speed="11.11" length="14.40" shape="-115.40,-6.60 -101.00,-6.60"/>
    </edge>
    <edge id=":-11_NE_0" function="internal">
        <lane id=":-11_NE_0_0" index="0" speed="11.11" length="14.40" shape="-84.60,109.80 -99.00,109.80"/>
        <lane id=":-11_NE_0_1" index="1" speed="11.11" length="14.40" shape="-84.60,106.60 -99.00,106.60"/>
    </edge>
    <edge id=":-11_NE_2" function="internal">
        <lane id=":-11_NE_2_0" index="0" speed="11.11" length="3.89" shape="-90.20,101.00 -90.75,104.85"/>
        <lane id=":-11_NE_2_1" index="1" speed="11.11" length="4.11" shape="-93.40,101.00 -93.75,103.45 -94.59,104.85"/>
    </edge>
    <edge id=":-11_NE_4" function="internal">
        <lane id=":-11_NE_4_0" index="0" speed="11.11" length="10.30" shape="-90.75,104.85 -92.40,107.60 -95.15,109.25 -99.00,109.80"/>
    </edge>
    <edge id=":-11_NE_5" function="internal">
        <lane id=":-11_NE_5_0" index="0" speed="11.11" length="4.93" shape="-94.59,104.85 -94.80,105.20 -96.55,106.25 -99.00,106.60"/>
    </edge>
    <edge id=":-11_NW_0" function="internal">
        <lane id=":-11_NW_0_0" index="0" speed="11.11" length="7.74" shape="-105.00,109.80 -107.10,109.50 -108.60,108.60 -109.50,107.10 -109.80,105.00"/>
        <lane id=":-11_NW_0_1" index="1" speed="11.11" length="2.58" shape="-105.00,106.60 -105.70,106.50 -106.20,106.20 -106.50,105.70 -106.60,105.00"/>
    </edge>
    <edge id=":-11_SE_0" function="internal">
        <lane id=":-11_SE_0_0" index="0" speed="11.11" length="9.03" shape="-90.20,84.60 -89.85,87.05 -88.80,88.80 -87.05,89.85 -84.60,90.20"/>
    </edge>
    <edge id=":-11_SE_1" function="internal">
        <lane id=":-11_SE_1_0" index="0" speed="11.11" length="14.40" shape="-90.20,84.60 -90.20,99.00"/>
        <lane id=":-11_SE_1_1" index="1" speed="11.11" length="14.40" shape="-93.40,84.60 -93.40,99.00"/>
    </edge>
    <edge id=":-11_SE_3" function="internal">
        <lane id=":-11_SE_3_0" index="0" speed="11.11" length="14.40" shape="-99.00,90.20 -84.60,90.20"/>
        <lane id=":-11_SE_3_1" index="1" speed="11.11" length="14.40" shape="-99.00,93.40 -84.60,93.40"/>
    </edge>
    <edge id=":-11_SE_5" function="internal">
        <lane id=":-11_SE_5_0" index="0" speed="11.11" length="4.11" shape="-99.00,93.40 -96.55,93.75 -95.15,94.59"/>
    </edge>
    <edge id=":-11_SE_6" function="internal">
        <lane id=":-11_SE_6_0" index="0" speed="11.11" length="4.93" shape="-95.15,94.59 -94.80,94.80 -93.75,96.55 -93.40,99.00"/>
    </edge>
    <edge id=":-11_SW_0" function="internal">
        <lane id=":-11_SW_0_0" index="0" speed="11.11" length="14.40" shape="-109.80,99.00 -109.80,84.60"/>
        <lane id=":-11_SW_0_1" index="1" speed="11.11" length="14.40" shape="-106.60,99.00 -106.60,84.60"/>
    </edge>
    <edge id=":-11_SW_2" function="internal">
        <lane id=":-11_SW_2_0" index="0" speed="11.11" length="11.73" shape="-106.60,99.00 -106.25,95.15 -105.20,92.40 -103.45,90.75 -101.00,90.20"/>
        <lane id=":-11_SW_2_1" index="1" speed="11.11" length="9.03" shape="-106.60,99.00 -106.25,96.55 -105.20,94.80 -103.45,93.75 -101.00,93.40"/>
    </edge>
    <edge id=":0-1_NE_0" function="internal">
        <lane id=":0-1_NE_0_0" index="0" speed="11.11" length="9.03" shape="15.40,-90.20 12.95,-89.85 11.20,-88.80 10.15,-87.05 9.80,-84.60"/>
    </edge>
    <edge id=":0-1_NE_1" function="internal">
        <lane id=":0-1_NE_1_0" index="0" speed="11.11" length="14.40" shape="15.40,-90.20 1.00,-90.20"/>
        <lane id=":0-1_NE_1_1" index="1" speed="11.11" length="14.40" shape="15.40,-93.40 1.00,-93.40"/>
    </edge>
    <edge id=":0-1_NE_3" function="internal">
        <lane id=":0-1_NE_3_0" index="0" speed="11.11" length="14.40" shape="9.80,-99.00 9.80,-84.60"/>
        <lane id=":0-1_NE_3_1" index="1" speed="11.11" length="14.40" shape="6.60,-99.00 6.60,-84.60"/>
    </edge>
    <edge id=":0-1_NE_5" function="internal">
        <lane id=":0-1_NE_5_0" index="0" speed="11.11" length="4.11" shape="6.60,-99.00 6.25,-96.55 5.41,-95.15"/>
    </edge>
    <edge id=":0-1_NE_6" function="internal">
        <lane id=":0-1_NE_6_0" index="0" speed="11.11" length="4.93" shape="5.41,-95.15 5.20,-94.80 3.45,-93.75 1.00,-93.40"/>
    </edge>
    <edge id=":0-1_NW_0" function="internal">
        <lane id=":0-1_NW_0_0" index="0" speed="11.11" length="9.03" shape="-9.80,-84.60 -10.15,-87.05 -11.20,-88.80 -12.95,-89.85 -15.40,-90.20"/>
    </edge>
    <edge id=":0-1_NW_1" function="internal">
        <lane id=":0-1_NW_1_0" index="0" speed="11.11" length="14.40" shape="-9.80,-84.60 -9.80,-99.00"/>
        <lane id=":0-1_NW_1_1" index="1" speed="11.11" length="14.40" shape="-6.60,-84.60 -6.60,-99.00"/>
    </edge>
    <edge id=":0-1_NW_3" function="internal">
        <lane id=":0-1_NW_3_0" index="0" speed="11.11" length="14.40" shape="-1.00,-90.20 -15.40,-90.20"/>
        <lane id=":0-1_NW_3_1" index="1" speed="11.11" length="14.40" shape="-1.00,-93.40 -15.40,-93.40"/>
    </edge>
    <edge id=":0-1_NW_5" function="internal">
        <lane id=":0-1_NW_5_0" index="0" speed="11.11" length="4.11" shape="-1.00,-93.40 -3.45,-93.75 -4.85,-94.59"/>
    </edge>
    <edge id=":0-1_NW_6" function="internal">
        <lane id=":0-1_NW_6_0" index="0" speed="11.11" length="4.93" shape="-4.85,-94.59 -5.20,-94.80 -6.25,-96.55 -6.60,-99.00"/>
    </edge>
    <edge id=":0-1_SE_0" function="internal">
        <lane id=":0-1_SE_0_0" index="0" speed="11.11" length="9.03" shape="9.80,-115.40 10.15,-112.95 11.20,-111.20 12.95,-110.15 15.40,-109.80"/>
    </edge>
    <edge id=":0-1_SE_1" function="internal">
        <lane id=":0-1_SE_1_0" index="0" speed="11.11" length="14.40" shape="9.80,-115.40 9.80,-101.00"/>
        <lane id=":0-1_SE_1_1" index="1" speed="11.11" length="14.40" shape="6.60,-115.40 6.60,-101.00"/>
    </edge>
    <edge id=":0-1_SE_3" function="internal">
        <lane id=":0-1_SE_3_0" index="0" speed="11.11" length="14.40" shape="1.00,-109.80 15.40,-109.80"/>
        <lane id=":0-1_SE_3_1" index="1" speed="11.11" length="14.40" shape="1.00,-106.60 15.40,-106.60"/>
    </edge>
    <edge id=":0-1_SE_5" function="internal">
        <lane id=":0-1_SE_5_0" index="0" speed="11.11" length="4.11" shape="1.00,-106.60 3.45,-106.25 4.85,-105.41"/>
    </edge>
    <edge id=":0-1_SE_6" function="internal">
        <lane id=":0-1_SE_6_0" index="0" speed="11.11" length="4.93" shape="4.85,-105.41 5.20,-105.20 6.25,-103.45 6.60,-101.00"/>
    </edge>
    <edge id=":0-1_SW_0" function="internal">
        <lane id=":0-1_SW_0_0" index="0" speed="11.11" length="14.40" shape="-9.80,-101.00 -9.80,-115.40"/>
        <lane id=":0-1_SW_0_1" index="1" speed="11.11" length="14.40" shape="-6.60,-101.00 -6.60,-115.40"/>
    </edge>
    <edge id=":0-1_SW_2" function="internal">
        <lane id=":0-1_SW_2_0" index="0" speed="11.11" length="4.11" shape="-6.60,-101.00 -6.25,-103.45 -5.41,-104.85"/>
    </edge>
    <edge id=":0-1_SW_6" function="internal">
        <lane id=":0-1_SW_6_0" index="0" speed="11.11" length="4.93" shape="-5.41,-104.85 -5.20,-105.20 -3.45,-106.25 -1.00,-106.60"/>
    </edge>
    <edge id=":0-1_SW_3" function="internal">
        <lane id=":0-1_SW_3_0" index="0" speed="11.11" length="9.03" shape="-15.40,-109.80 -12.95,-110.15 -11.20,-111.20 -10.15,-112.95 -9.80,-115.40"/>
    </edge>
    <edge id=":0-1_SW_4" function="internal">
        <lane id=":0-1_SW_4_0" index="0" speed="11.11" length="14.40" shape="-15.40,-109.80 -1.00,-109.80"/>
        <lane id=":0-1_SW_4_1" index="1" speed="11.11" length="14.40" shape="-15.40,-106.60 -1.00,-106.60"/>
    </edge>
    <edge id=":00_NE_0" function="internal">
        <lane id=":00_NE_0_0" index="0" speed="11.11" length="9.03" shape="15.40,9.80 12.95,10.15 11.20,11.20 10.15,12.95 9.80,15.40"/>
    </edge>
    <edge id=":00_NE_1" function="internal">
        <lane id=":00_NE_1_0" index="0" speed="11.11" length="14.40" shape="15.40,9.80 1.00,9.80"/>
        <lane id=":00_NE_1_1" index="1" speed="11.11" length="14.40" shape="15.40,6.60 1.00,6.60"/>
    </edge>
    <edge id=":00_NE_3" function="internal">
        <lane id=":00_NE_3_0" index="0" speed="11.11" length="14.40" shape="9.80,1.00 9.80,15.40"/>
        <lane id=":00_NE_3_1" index="1" speed="11.11" length="14.40" shape="6.60,1.00 6.60,15.40"/>
    </edge>
    <edge id=":00_NE_5" function="internal">
        <lane id=":00_NE_5_0" index="0" speed="11.11" length="9.03" shape="6.60,1.00 6.25,3.45 5.20,5.20 3.45,6.25 1.00,6.60"/>
    </edge>
    <edge id=":00_NW_0" function="internal">
        <lane id=":00_NW_0_0" index="0" speed="11.11" length="9.03" shape="-9.80,15.40 -10.15,12.95 -11.20,11.20 -12.95,10.15 -15.40,9.80"/>
    </edge>
    <edge id=":00_NW_1" function="internal">
        <lane id=":00_NW_1_0" index="0" speed="11.11" length="14.40" shape="-9.80,15.40 -9.80,1.00"/>
        <lane id=":00_NW_1_1" index="1" speed="11.11" length="14.40" shape="-6.60,15.40 -6.60,1.00"/>
    </edge>
    <edge id=":00_NW_3" function="internal">
        <lane id=":00_NW_3_0" index="0" speed="11.11" length="14.40" shape="-1.00,9.80 -15.40,9.80"/>
        <lane id=":00_NW_3_1" index="1" speed="11.11" length="14.40" shape="-1.00,6.60 -15.40,6.60"/>
    </edge>
    <edge id=":00_NW_5" function="internal">
        <lane id=":00_NW_5_0" index="0" speed="11.11" length="9.03" shape="-1.00,6.60 -3.45,6.25 -5.20,5.20 -6.25,3.45 -6.60,1.00"/>
    </edge>
    <edge id=":00_SE_0" function="internal">
        <lane id=":00_SE_0_0" index="0" speed="11.11" length="9.03" shape="9.80,-15.40 10.15,-12.95 11.20,-11.20 12.95,-10.15 15.40,-9.80"/>
    </edge>
    <edge id=":00_SE_1" function="internal">
        <lane id=":00_SE_1_0" index="0" speed="11.11" length="14.40" shape="9.80,-15.40 9.80,-1.00"/>
        <lane id=":00_SE_1_1" index="1" speed="11.11" length="14.40" shape="6.60,-15.40 6.60,-1.00"/>
    </edge>
    <edge id=":00_SE_3" function="internal">
        <lane id=":00_SE_3_0" index="0" speed="11.11" length="14.40" shape="1.00,-9.80 15.40,-9.80"/>
        <lane id=":00_SE_3_1" index="1" speed="11.11" length="14.40" shape="1.00,-6.60 15.40,-6.60"/>
    </edge>
    <edge id=":00_SE_5" function="internal">
        <lane id=":00_SE_5_0" index="0" speed="11.11" length="9.03" shape="1.00,-6.60 3.45,-6.25 5.20,-5.20 6.25,-3.45 6.60,-1.00"/>
    </edge>
    <edge id=":00_SW_0" function="internal">
        <lane id=":00_SW_0_0" index="0" speed="11.11" length="14.40" shape="-9.80,-1.00 -9.80,-15.40"/>
        <lane id=":00_SW_0_1" index="1" speed="11.11" length="14.40" shape="-6.60,-1.00 -6.60,-15.40"/>
    </edge>
    <edge id=":00_SW_2" function="internal">
        <lane id=":00_SW_2_0" index="0" speed="11.11" length="9.03" shape="-6.60,-1.00 -6.25,-3.45 -5.20,-5.20 -3.45,-6.25 -1.00,-6.60"/>
    </edge>
    <edge id=":00_SW_3" function="internal">
        <lane id=":00_SW_3_0" index="0" speed="11.11" length="9.03" shape="-15.40,-9.80 -12.95,-10.15 -11.20,-11.20 -10.15,-12.95 -9.80,-15.40"/>
    </edge>
    <edge id=":00_SW_4" function="internal">
        <lane id=":00_SW_4_0" index="0" speed="11.11" length="14.40" shape="-15.40,-9.80 -1.00,-9.80"/>
        <lane id=":00_SW_4_1" index="1" speed="11.11" length="14.40" shape="-15.40,-6.60 -1.00,-6.60"/>
    </edge>
    <edge id=":01_NE_0" function="internal">
        <lane id=":01_NE_0_0" index="0" speed="11.11" length="9.03" shape="-9.80,115.40 -10.15,112.95 -11.20,111.20 -12.95,110.15 -15.40,109.80"/>
    </edge>
    <edge id=":01_NE_1" function="internal">
        <lane id=":01_NE_1_0" index="0" speed="11.11" length="14.40" shape="-9.80,115.40 -9.80,101.00"/>
        <lane id=":01_NE_1_1" index="1" speed="11.11" length="14.40" shape="-6.60,115.40 -6.60,101.00"/>
    </edge>
    <edge id=":01_NE_3" function="internal">
        <lane id=":01_NE_3_0" index="0" speed="11.11" length="14.40" shape="-1.00,109.80 -15.40,109.80"/>
        <lane id=":01_NE_3_1" index="1" speed="11.11" length="14.40" shape="-1.00,106.60 -15.40,106.60"/>
    </edge>
    <edge id=":01_NE_5" function="internal">
        <lane id=":01_NE_5_0" index="0" speed="11.11" length="4.11" shape="-1.00,106.60 -3.45,106.25 -4.85,105.41"/>
    </edge>
    <edge id=":01_NE_6" function="internal">
        <lane id=":01_NE_6_0" index="0" speed="11.11" length="4.93" shape="-4.85,105.41 -5.20,105.20 -6.25,103.45 -6.60,101.00"/>
    </edge>
    <edge id=":01_SE_0" function="internal">
        <lane id=":01_SE_0_0" index="0" speed="11.11" length="14.40" shape="-9.80,99.00 -9.80,84.60"/>
        <lane id=":01_SE_0_1" index="1" speed="11.11" length="14.40" shape="-6.60,99.00 -6.60,84.60"/>
    </edge>
    <edge id=":01_SE_2" function="internal">
        <lane id=":01_SE_2_0" index="0" speed="11.11" length="4.11" shape="-6.60,99.00 -6.25,96.55 -5.41,95.15"/>
    </edge>
    <edge id=":01_SE_6" function="internal">
        <lane id=":01_SE_6_0" index="0" speed="11.11" length="4.93" shape="-5.41,95.15 -5.20,94.80 -3.45,93.75 -1.00,93.40"/>
    </edge>
    <edge id=":01_SE_3" function="internal">
        <lane id=":01_SE_3_0" index="0" speed="11.11" length="9.03" shape="-15.40,90.20 -12.95,89.85 -11.20,88.80 -10.15,87.05 -9.80,84.60"/>
    </edge>
    <edge id=":01_SE_4" function="internal">
        <lane id=":01_SE_4_0" index="0" speed="11.11" length="14.40" shape="-15.40,90.20 -1.00,90.20"/>
        <lane id=":01_SE_4_1" index="1" speed="11.11" length="14.40" shape="-15.40,93.40 -1.00,93.40"/>
    </edge>
    <edge id=":01_SW_0" function="internal">
        <lane id=":01_SW_0_0" index="0" speed="11.11" length="9.03" shape="9.80,84.60 10.15,87.05 11.20,88.80 12.95,89.85 15.40,90.20"/>
    </edge>
    <edge id=":01_SW_1" function="internal">
        <lane id=":01_SW_1_0" index="0" speed="11.11" length="14.40" shape="9.80,84.60 9.80,99.00"/>
        <lane id=":01_SW_1_1" index="1" speed="11.11" length="14.40" shape="6.60,84.60 6.60,99.00"/>
    </edge>
    <edge id=":01_SW_3" function="internal">
        <lane id=":01_SW_3_0" index="0" speed="11.11" length="14.40" shape="1.00,90.20 15.40,90.20"/>
        <lane id=":01_SW_3_1" index="1" speed="11.11" length="14.40" shape="1.00,93.40 15.40,93.40"/>
    </edge>
    <edge id=":01_SW_5" function="internal">
        <lane id=":01_SW_5_0" index="0" speed="11.11" length="4.11" shape="1.00,93.40 3.45,93.75 4.85,94.59"/>
    </edge>
    <edge id=":01_SW_6" function="internal">
        <lane id=":01_SW_6_0" index="0" speed="11.11" length="4.93" shape="4.85,94.59 5.20,94.80 6.25,96.55 6.60,99.00"/>
    </edge>
    <edge id=":1-1_NE_0" function="internal">
        <lane id=":1-1_NE_0_0" index="0" speed="11.11" length="14.40" shape="109.80,-99.00 109.80,-84.60"/>
        <lane id=":1-1_NE_0_1" index="1" speed="11.11" length="14.40" shape="106.60,-99.00 106.60,-84.60"/>
    </edge>
    <edge id=":1-1_NE_2" function="internal">
        <lane id=":1-1_NE_2_0" index="0" speed="11.11" length="11.73" shape="106.60,-99.00 106.25,-95.15 105.20,-92.40 103.45,-90.75 101.00,-90.20"/>
        <lane id=":1-1_NE_2_1" index="1" speed="11.11" length="9.03" shape="106.60,-99.00 106.25,-96.55 105.20,-94.80 103.45,-93.75 101.00,-93.40"/>
    </edge>
    <edge id=":1-1_NW_0" function="internal">
        <lane id=":1-1_NW_0_0" index="0" speed="11.11" length="9.03" shape="90.20,-84.60 89.85,-87.05 88.80,-88.80 87.05,-89.85 84.60,-90.20"/>
    </edge>
    <edge id=":1-1_NW_1" function="internal">
        <lane id=":1-1_NW_1_0" index="0" speed="11.11" length="14.40" shape="90.20,-84.60 90.20,-99.00"/>
        <lane id=":1-1_NW_1_1" index="1" speed="11.11" length="14.40" shape="93.40,-84.60 93.40,-99.00"/>
    </edge>
    <edge id=":1-1_NW_3" function="internal">
        <lane id=":1-1_NW_3_0" index="0" speed="11.11" length="14.40" shape="99.00,-90.20 84.60,-90.20"/>
        <lane id=":1-1_NW_3_1" index="1" speed="11.11" length="14.40" shape="99.00,-93.40 84.60,-93.40"/>
    </edge>
    <edge id=":1-1_NW_5" function="internal">
        <lane id=":1-1_NW_5_0" index="0" speed="11.11" length="4.11" shape="99.00,-93.40 96.55,-93.75 95.15,-94.59"/>
    </edge>
    <edge id=":1-1_NW_6" function="internal">
        <lane id=":1-1_NW_6_0" index="0" speed="11.11" length="4.93" shape="95.15,-94.59 94.80,-94.80 93.75,-96.55 93.40,-99.00"/>
    </edge>
    <edge id=":1-1_SE_0" function="internal">
        <lane id=":1-1_SE_0_0" index="0" speed="11.11" length="7.74" shape="105.00,-109.80 107.10,-109.50 108.60,-108.60 109.50,-107.10 109.80,-105.00"/>
        <lane id=":1-1_SE_0_1" index="1" speed="11.11" length="2.58" shape="105.00,-106.60 105.70,-106.50 106.20,-106.20 106.50,-105.70 106.60,-105.00"/>
    </edge>
    <edge id=":1-1_SW_0" function="internal">
        <lane id=":1-1_SW_0_0" index="0" speed="11.11" length="3.89" shape="90.20,-101.00 90.75,-104.85"/>
        <lane id=":1-1_SW_0_1" index="1" speed="11.11" length="4.11" shape="93.40,-101.00 93.75,-103.45 94.59,-104.85"/>
    </edge>
    <edge id=":1-1_SW_4" function="internal">
        <lane id=":1-1_SW_4_0" index="0" speed="11.11" length="10.30" shape="90.75,-104.85 92.40,-107.60 95.15,-109.25 99.00,-109.80"/>
    </edge>
    <edge id=":1-1_SW_5" function="internal">
        <lane id=":1-1_SW_5_0" index="0" speed="11.11" length="4.93" shape="94.59,-104.85 94.80,-105.20 96.55,-106.25 99.00,-106.60"/>
    </edge>
    <edge id=":1-1_SW_2" function="internal">
        <lane id=":1-1_SW_2_0" index="0" speed="11.11" length="14.40" shape="84.60,-109.80 99.00,-109.80"/>
        <lane id=":1-1_SW_2_1" index="1" speed="11.11" length="14.40" shape="84.60,-106.60 99.00,-106.60"/>
    </edge>
    <edge id=":10_NE_0" function="internal">
        <lane id=":10_NE_0_0" index="0" speed="11.11" length="9.03" shape="115.40,9.80 112.95,10.15 111.20,11.20 110.15,12.95 109.80,15.40"/>
    </edge>
    <edge id=":10_NE_1" function="internal">
        <lane id=":10_NE_1_0" index="0" speed="11.11" length="14.40" shape="115.40,9.80 101.00,9.80"/>
        <lane id=":10_NE_1_1" index="1" speed="11.11" length="14.40" shape="115.40,6.60 101.00,6.60"/>
    </edge>
    <edge id=":10_NE_3" function="internal">
        <lane id=":10_NE_3_0" index="0" speed="11.11" length="14.40" shape="109.80,1.00 109.80,15.40"/>
        <lane id=":10_NE_3_1" index="1" speed="11.11" length="14.40" shape="106.60,1.00 106.60,15.40"/>
    </edge>
    <edge id=":10_NE_5" function="internal">
        <lane id=":10_NE_5_0" index="0" speed="11.11" length="4.11" shape="106.60,1.00 106.25,3.45 105.41,4.85"/>
    </edge>
    <edge id=":10_NE_6" function="internal">
        <lane id=":10_NE_6_0" index="0" speed="11.11" length="4.93" shape="105.41,4.85 105.20,5.20 103.45,6.25 101.00,6.60"/>
    </edge>
    <edge id=":10_NW_0" function="internal">
        <lane id=":10_NW_0_0" index="0" speed="11.11" length="9.03" shape="90.20,15.40 89.85,12.95 88.80,11.20 87.05,10.15 84.60,9.80"/>
    </edge>
    <edge id=":10_NW_1" function="internal">
        <lane id=":10_NW_1_0" index="0" speed="11.11" length="14.40" shape="90.20,15.40 90.20,1.00"/>
        <lane id=":10_NW_1_1" index="1" speed="11.11" length="14.40" shape="93.40,15.40 93.40,1.00"/>
    </edge>
    <edge id=":10_NW_3" function="internal">
        <lane id=":10_NW_3_0" index="0" speed="11.11" length="14.40" shape="99.00,9.80 84.60,9.80"/>
        <lane id=":10_NW_3_1" index="1" speed="11.11" length="14.40" shape="99.00,6.60 84.60,6.60"/>
    </edge>
    <edge id=":10_NW_5" function="internal">
        <lane id=":10_NW_5_0" index="0" speed="11.11" length="4.11" shape="99.00,6.60 96.55,6.25 95.15,5.41"/>
    </edge>
    <edge id=":10_NW_6" function="internal">
        <lane id=":10_NW_6_0" index="0" speed="11.11" length="4.93" shape="95.15,5.41 94.80,5.20 93.75,3.45 93.40,1.00"/>
    </edge>
    <edge id=":10_SE_0" function="internal">
        <lane id=":10_SE_0_0" index="0" speed="11.11" length="9.03" shape="109.80,-15.40 110.15,-12.95 111.20,-11.20 112.95,-10.15 115.40,-9.80"/>
    </edge>
    <edge id=":10_SE_1" function="internal">
        <lane id=":10_SE_1_0" index="0" speed="11.11" length="14.40" shape="109.80,-15.40 109.80,-1.00"/>
        <lane id=":10_SE_1_1" index="1" speed="11.11" length="14.40" shape="106.60,-15.40 106.60,-1.00"/>
    </edge>
    <edge id=":10_SE_3" function="internal">
        <lane id=":10_SE_3_0" index="0" speed="11.11" length="14.40" shape="101.00,-9.80 115.40,-9.80"/>
        <lane id=":10_SE_3_1" index="1" speed="11.11" length="14.40" shape="101.00,-6.60 115.40,-6.60"/>
    </edge>
    <edge id=":10_SE_5" function="internal">
        <lane id=":10_SE_5_0" index="0" speed="11.11" length="4.11" shape="101.00,-6.60 103.45,-6.25 104.85,-5.41"/>
    </edge>
    <edge id=":10_SE_6" function="internal">